/*--------------------------------*- C++ -*----------------------------------*\
| =========                 |                                                 |
| \\      /  F ield         | OpenFOAM: The Open Source CFD Toolbox           |
|  \\    /   O peration     | Version:  v2312                                 |
|   \\  /    A nd           | Website:  www.openfoam.com                      |
|    \\/     M anipulation  |                                                 |
\*---------------------------------------------------------------------------*/
FoamFile
{
    version     2.0;
    format      ascii;
    class       dictionary;
    object      controlDict;
}
// * * * * * * * * * * * * * * * * * * * * * * * * * * * * * * * * * * * * * //

application     simpleFoam;

startFrom       startTime;

startTime       0;

stopAt          endTime;

endTime         2000;

deltaT          0.005;

writeControl    timeStep;

writeInterval   500;

purgeWrite      0;

writeFormat     ascii;

writePrecision  6;

writeCompression off;

timeFormat      general;

timePrecision   6;

runTimeModifiable true;
maxCo           0.8;

functions
{#includeFunc solverInfo
       forceCoeffs1
{
    // Mandatory entries
    type            forceCoeffs;
    libs            ("libforces.so");
    patches         (airfoil);


    // Optional entries

    // Field names
    p               p;
    U               U;
    rho             rhoInf;

    // Reference pressure [Pa]
    pRef            0;
    rhoInf          1.2;

    // Include porosity effects?
    porosity        no;

    // Store and write volume field representations of forces and moments
    writeFields     yes;

    // Centre of rotation for moment calculations
    CofR            (0 0 0);

    // Lift direction
    liftDir         (-0.0697564 0.99756 0);

    // Drag direction
    dragDir         ( 0.99756 0.0697564 0);

    // Pitch axis
    pitchAxis       (0 0 1);

    // Freestream velocity magnitude [m/s]
    magUInf         36.6;

    // Reference length [m]
    lRef           1;

    // Reference area [m2]
    Aref            0.15;

    // Spatial data binning
    // - extents given by the bounds of the input geometry
    //binData
    //{
    //    nBin        20;
    //    direction   (1 0 0);
    //    cumulative  yes;
    //}
}
yPlus1
{
    // Mandatory entries (unmodifiable)
    type            yPlus;
    libs            (fieldFunctionObjects);

    // Optional (inherited) entries
    writePrecision  8;
    writeToFile     true;
    useUserTime     true;
    region          region0;
    enabled         true;
    log             true;
    timeStart       0;
    timeEnd         1000;
    executeControl  timeStep;
    executeInterval 1;
    writeControl    timeStep;
    writeInterval   1;
}
}


// ************************************************************************* //
